[General]
network = SocatNetns
scheduler-class = "inet::RealTimeScheduler"
sim-time-limit = 60s

**.crcMode = "computed"
**.fcsMode = "computed"

*.host1.eth[0].typename = "ExtUpperEthernetInterface"
*.host1.eth[0].device = "tap1"
*.host1.eth[0].namespace = "ns1"
*.host1.eth[0].copyConfiguration = "copyFromExt"
*.host1.numPcapRecorders = 1
*.host1.pcapRecorder[*].pcapFile = "results/host1.pcap"

*.host2.eth[0].typename = "ExtUpperEthernetInterface"
*.host2.eth[0].device = "tap2"
*.host2.eth[0].namespace = "ns2"
*.host2.eth[0].copyConfiguration = "copyFromExt"
*.host2.numPcapRecorders = 1
*.host2.pcapRecorder[*].pcapFile = "results/host2.pcap"

*.visualizer.*.interfaceTableVisualizer.displayInterfaceTables = true
*.visualizer.*.interfaceTableVisualizer.nodeFilter = "not name=~switch*"

**.duplexMode = true
**.eth*.bitrate = 100Mbps

**.pcapRecorder[*].alwaysFlush = true
