[General]
network = StarTree
scheduler-class = "inet::RealTimeScheduler"
sim-time-limit = 120s

*.visualizer.*.interfaceTableVisualizer.displayInterfaceTables = true
*.visualizer.*.interfaceTableVisualizer.nodeFilter = "not name=~switch*"

**.crcMode = "computed"
**.fcsMode = "computed"

**.duplexMode = true
**.eth*.bitrate = 100Mbps

**.pcapRecorder[*].alwaysFlush = true

*.localhost.eth[0].typename = "ExtUpperEthernetInterface"
*.localhost.eth[0].device = "tap_l"
*.localhost.eth[0].copyConfiguration = "copyFromExt"
*.localhost.numPcapRecorders = 1
*.localhost.pcapRecorder[*].pcapFile = "results/localhost.pcap"

*.host1.eth[0].typename = "ExtUpperEthernetInterface"
*.host1.eth[0].device = "tap1"
*.host1.eth[0].namespace = "ns1"
*.host1.eth[0].copyConfiguration = "copyFromExt"
*.host1.numPcapRecorders = 1
*.host1.pcapRecorder[*].pcapFile = "results/host1.pcap"

*.host2.eth[0].typename = "ExtUpperEthernetInterface"
*.host2.eth[0].device = "tap2"
*.host2.eth[0].namespace = "ns2"
*.host2.eth[0].copyConfiguration = "copyFromExt"
*.host2.numPcapRecorders = 1
*.host2.pcapRecorder[*].pcapFile = "results/host2.pcap"

*.host3.eth[0].typename = "ExtUpperEthernetInterface"
*.host3.eth[0].device = "tap3"
*.host3.eth[0].namespace = "ns3"
*.host3.eth[0].copyConfiguration = "copyFromExt"
*.host3.numPcapRecorders = 1
*.host3.pcapRecorder[*].pcapFile = "results/host3.pcap"

*.host4.eth[0].typename = "ExtUpperEthernetInterface"
*.host4.eth[0].device = "tap4"
*.host4.eth[0].namespace = "ns4"
*.host4.eth[0].copyConfiguration = "copyFromExt"
*.host4.numPcapRecorders = 1
*.host4.pcapRecorder[*].pcapFile = "results/host4.pcap"

*.host5.eth[0].typename = "ExtUpperEthernetInterface"
*.host5.eth[0].device = "tap5"
*.host5.eth[0].namespace = "ns5"
*.host5.eth[0].copyConfiguration = "copyFromExt"
*.host5.numPcapRecorders = 1
*.host5.pcapRecorder[*].pcapFile = "results/host5.pcap"

*.host6.eth[0].typename = "ExtUpperEthernetInterface"
*.host6.eth[0].device = "tap6"
*.host6.eth[0].namespace = "ns6"
*.host6.eth[0].copyConfiguration = "copyFromExt"
*.host6.numPcapRecorders = 1
*.host6.pcapRecorder[*].pcapFile = "results/host6.pcap"

*.host7.eth[0].typename = "ExtUpperEthernetInterface"
*.host7.eth[0].device = "tap7"
*.host7.eth[0].namespace = "ns7"
*.host7.eth[0].copyConfiguration = "copyFromExt"
*.host7.numPcapRecorders = 1
*.host7.pcapRecorder[*].pcapFile = "results/host7.pcap"

*.host8.eth[0].typename = "ExtUpperEthernetInterface"
*.host8.eth[0].device = "tap8"
*.host8.eth[0].namespace = "ns8"
*.host8.eth[0].copyConfiguration = "copyFromExt"
*.host8.numPcapRecorders = 1
*.host8.pcapRecorder[*].pcapFile = "results/host8.pcap"

*.host9.eth[0].typename = "ExtUpperEthernetInterface"
*.host9.eth[0].device = "tap9"
*.host9.eth[0].namespace = "ns9"
*.host9.eth[0].copyConfiguration = "copyFromExt"
*.host9.numPcapRecorders = 1
*.host9.pcapRecorder[*].pcapFile = "results/host9.pcap"

*.host10.eth[0].typename = "ExtUpperEthernetInterface"
*.host10.eth[0].device = "tap10"
*.host10.eth[0].namespace = "ns10"
*.host10.eth[0].copyConfiguration = "copyFromExt"
*.host10.numPcapRecorders = 1
*.host10.pcapRecorder[*].pcapFile = "results/host10.pcap"

*.host11.eth[0].typename = "ExtUpperEthernetInterface"
*.host11.eth[0].device = "tap11"
*.host11.eth[0].namespace = "ns11"
*.host11.eth[0].copyConfiguration = "copyFromExt"
*.host11.numPcapRecorders = 1
*.host11.pcapRecorder[*].pcapFile = "results/host11.pcap"

*.host12.eth[0].typename = "ExtUpperEthernetInterface"
*.host12.eth[0].device = "tap12"
*.host12.eth[0].namespace = "ns12"
*.host12.eth[0].copyConfiguration = "copyFromExt"
*.host12.numPcapRecorders = 1
*.host12.pcapRecorder[*].pcapFile = "results/host12.pcap"

*.host13.eth[0].typename = "ExtUpperEthernetInterface"
*.host13.eth[0].device = "tap13"
*.host13.eth[0].namespace = "ns13"
*.host13.eth[0].copyConfiguration = "copyFromExt"
*.host13.numPcapRecorders = 1
*.host13.pcapRecorder[*].pcapFile = "results/host13.pcap"

*.host14.eth[0].typename = "ExtUpperEthernetInterface"
*.host14.eth[0].device = "tap14"
*.host14.eth[0].namespace = "ns14"
*.host14.eth[0].copyConfiguration = "copyFromExt"
*.host14.numPcapRecorders = 1
*.host14.pcapRecorder[*].pcapFile = "results/host14.pcap"

*.host15.eth[0].typename = "ExtUpperEthernetInterface"
*.host15.eth[0].device = "tap15"
*.host15.eth[0].namespace = "ns15"
*.host15.eth[0].copyConfiguration = "copyFromExt"
*.host15.numPcapRecorders = 1
*.host15.pcapRecorder[*].pcapFile = "results/host15.pcap"

*.host16.eth[0].typename = "ExtUpperEthernetInterface"
*.host16.eth[0].device = "tap16"
*.host16.eth[0].namespace = "ns16"
*.host16.eth[0].copyConfiguration = "copyFromExt"
*.host16.numPcapRecorders = 1
*.host16.pcapRecorder[*].pcapFile = "results/host16.pcap"

*.host17.eth[0].typename = "ExtUpperEthernetInterface"
*.host17.eth[0].device = "tap17"
*.host17.eth[0].namespace = "ns17"
*.host17.eth[0].copyConfiguration = "copyFromExt"
*.host17.numPcapRecorders = 1
*.host17.pcapRecorder[*].pcapFile = "results/host17.pcap"

*.host18.eth[0].typename = "ExtUpperEthernetInterface"
*.host18.eth[0].device = "tap18"
*.host18.eth[0].namespace = "ns18"
*.host18.eth[0].copyConfiguration = "copyFromExt"
*.host18.numPcapRecorders = 1
*.host18.pcapRecorder[*].pcapFile = "results/host18.pcap"

*.host19.eth[0].typename = "ExtUpperEthernetInterface"
*.host19.eth[0].device = "tap19"
*.host19.eth[0].namespace = "ns19"
*.host19.eth[0].copyConfiguration = "copyFromExt"
*.host19.numPcapRecorders = 1
*.host19.pcapRecorder[*].pcapFile = "results/host19.pcap"

*.host20.eth[0].typename = "ExtUpperEthernetInterface"
*.host20.eth[0].device = "tap20"
*.host20.eth[0].namespace = "ns20"
*.host20.eth[0].copyConfiguration = "copyFromExt"
*.host20.numPcapRecorders = 1
*.host20.pcapRecorder[*].pcapFile = "results/host20.pcap"

*.host21.eth[0].typename = "ExtUpperEthernetInterface"
*.host21.eth[0].device = "tap21"
*.host21.eth[0].namespace = "ns21"
*.host21.eth[0].copyConfiguration = "copyFromExt"
*.host21.numPcapRecorders = 1
*.host21.pcapRecorder[*].pcapFile = "results/host21.pcap"

*.host22.eth[0].typename = "ExtUpperEthernetInterface"
*.host22.eth[0].device = "tap22"
*.host22.eth[0].namespace = "ns22"
*.host22.eth[0].copyConfiguration = "copyFromExt"
*.host22.numPcapRecorders = 1
*.host22.pcapRecorder[*].pcapFile = "results/host22.pcap"

*.host23.eth[0].typename = "ExtUpperEthernetInterface"
*.host23.eth[0].device = "tap23"
*.host23.eth[0].namespace = "ns23"
*.host23.eth[0].copyConfiguration = "copyFromExt"
*.host23.numPcapRecorders = 1
*.host23.pcapRecorder[*].pcapFile = "results/host23.pcap"

*.host24.eth[0].typename = "ExtUpperEthernetInterface"
*.host24.eth[0].device = "tap24"
*.host24.eth[0].namespace = "ns24"
*.host24.eth[0].copyConfiguration = "copyFromExt"
*.host24.numPcapRecorders = 1
*.host24.pcapRecorder[*].pcapFile = "results/host24.pcap"

*.host25.eth[0].typename = "ExtUpperEthernetInterface"
*.host25.eth[0].device = "tap25"
*.host25.eth[0].namespace = "ns25"
*.host25.eth[0].copyConfiguration = "copyFromExt"
*.host25.numPcapRecorders = 1
*.host25.pcapRecorder[*].pcapFile = "results/host25.pcap"

*.host26.eth[0].typename = "ExtUpperEthernetInterface"
*.host26.eth[0].device = "tap26"
*.host26.eth[0].namespace = "ns26"
*.host26.eth[0].copyConfiguration = "copyFromExt"
*.host26.numPcapRecorders = 1
*.host26.pcapRecorder[*].pcapFile = "results/host26.pcap"

*.host27.eth[0].typename = "ExtUpperEthernetInterface"
*.host27.eth[0].device = "tap27"
*.host27.eth[0].namespace = "ns27"
*.host27.eth[0].copyConfiguration = "copyFromExt"
*.host27.numPcapRecorders = 1
*.host27.pcapRecorder[*].pcapFile = "results/host27.pcap"

*.host28.eth[0].typename = "ExtUpperEthernetInterface"
*.host28.eth[0].device = "tap28"
*.host28.eth[0].namespace = "ns28"
*.host28.eth[0].copyConfiguration = "copyFromExt"
*.host28.numPcapRecorders = 1
*.host28.pcapRecorder[*].pcapFile = "results/host28.pcap"

*.host29.eth[0].typename = "ExtUpperEthernetInterface"
*.host29.eth[0].device = "tap29"
*.host29.eth[0].namespace = "ns29"
*.host29.eth[0].copyConfiguration = "copyFromExt"
*.host29.numPcapRecorders = 1
*.host29.pcapRecorder[*].pcapFile = "results/host29.pcap"

*.host30.eth[0].typename = "ExtUpperEthernetInterface"
*.host30.eth[0].device = "tap30"
*.host30.eth[0].namespace = "ns30"
*.host30.eth[0].copyConfiguration = "copyFromExt"
*.host30.numPcapRecorders = 1
*.host30.pcapRecorder[*].pcapFile = "results/host30.pcap"

*.host31.eth[0].typename = "ExtUpperEthernetInterface"
*.host31.eth[0].device = "tap31"
*.host31.eth[0].namespace = "ns31"
*.host31.eth[0].copyConfiguration = "copyFromExt"
*.host31.numPcapRecorders = 1
*.host31.pcapRecorder[*].pcapFile = "results/host31.pcap"

*.host32.eth[0].typename = "ExtUpperEthernetInterface"
*.host32.eth[0].device = "tap32"
*.host32.eth[0].namespace = "ns32"
*.host32.eth[0].copyConfiguration = "copyFromExt"
*.host32.numPcapRecorders = 1
*.host32.pcapRecorder[*].pcapFile = "results/host32.pcap"

*.host33.eth[0].typename = "ExtUpperEthernetInterface"
*.host33.eth[0].device = "tap33"
*.host33.eth[0].namespace = "ns33"
*.host33.eth[0].copyConfiguration = "copyFromExt"
*.host33.numPcapRecorders = 1
*.host33.pcapRecorder[*].pcapFile = "results/host33.pcap"

*.host34.eth[0].typename = "ExtUpperEthernetInterface"
*.host34.eth[0].device = "tap34"
*.host34.eth[0].namespace = "ns34"
*.host34.eth[0].copyConfiguration = "copyFromExt"
*.host34.numPcapRecorders = 1
*.host34.pcapRecorder[*].pcapFile = "results/host34.pcap"

*.host35.eth[0].typename = "ExtUpperEthernetInterface"
*.host35.eth[0].device = "tap35"
*.host35.eth[0].namespace = "ns35"
*.host35.eth[0].copyConfiguration = "copyFromExt"
*.host35.numPcapRecorders = 1
*.host35.pcapRecorder[*].pcapFile = "results/host35.pcap"

*.host36.eth[0].typename = "ExtUpperEthernetInterface"
*.host36.eth[0].device = "tap36"
*.host36.eth[0].namespace = "ns36"
*.host36.eth[0].copyConfiguration = "copyFromExt"
*.host36.numPcapRecorders = 1
*.host36.pcapRecorder[*].pcapFile = "results/host36.pcap"

*.host37.eth[0].typename = "ExtUpperEthernetInterface"
*.host37.eth[0].device = "tap37"
*.host37.eth[0].namespace = "ns37"
*.host37.eth[0].copyConfiguration = "copyFromExt"
*.host37.numPcapRecorders = 1
*.host37.pcapRecorder[*].pcapFile = "results/host37.pcap"

*.host38.eth[0].typename = "ExtUpperEthernetInterface"
*.host38.eth[0].device = "tap38"
*.host38.eth[0].namespace = "ns38"
*.host38.eth[0].copyConfiguration = "copyFromExt"
*.host38.numPcapRecorders = 1
*.host38.pcapRecorder[*].pcapFile = "results/host38.pcap"

*.host39.eth[0].typename = "ExtUpperEthernetInterface"
*.host39.eth[0].device = "tap39"
*.host39.eth[0].namespace = "ns39"
*.host39.eth[0].copyConfiguration = "copyFromExt"
*.host39.numPcapRecorders = 1
*.host39.pcapRecorder[*].pcapFile = "results/host39.pcap"

*.host40.eth[0].typename = "ExtUpperEthernetInterface"
*.host40.eth[0].device = "tap40"
*.host40.eth[0].namespace = "ns40"
*.host40.eth[0].copyConfiguration = "copyFromExt"
*.host40.numPcapRecorders = 1
*.host40.pcapRecorder[*].pcapFile = "results/host40.pcap"

*.host41.eth[0].typename = "ExtUpperEthernetInterface"
*.host41.eth[0].device = "tap41"
*.host41.eth[0].namespace = "ns41"
*.host41.eth[0].copyConfiguration = "copyFromExt"
*.host41.numPcapRecorders = 1
*.host41.pcapRecorder[*].pcapFile = "results/host41.pcap"

*.host42.eth[0].typename = "ExtUpperEthernetInterface"
*.host42.eth[0].device = "tap42"
*.host42.eth[0].namespace = "ns42"
*.host42.eth[0].copyConfiguration = "copyFromExt"
*.host42.numPcapRecorders = 1
*.host42.pcapRecorder[*].pcapFile = "results/host42.pcap"

*.host43.eth[0].typename = "ExtUpperEthernetInterface"
*.host43.eth[0].device = "tap43"
*.host43.eth[0].namespace = "ns43"
*.host43.eth[0].copyConfiguration = "copyFromExt"
*.host43.numPcapRecorders = 1
*.host43.pcapRecorder[*].pcapFile = "results/host43.pcap"

*.host44.eth[0].typename = "ExtUpperEthernetInterface"
*.host44.eth[0].device = "tap44"
*.host44.eth[0].namespace = "ns44"
*.host44.eth[0].copyConfiguration = "copyFromExt"
*.host44.numPcapRecorders = 1
*.host44.pcapRecorder[*].pcapFile = "results/host44.pcap"

*.host45.eth[0].typename = "ExtUpperEthernetInterface"
*.host45.eth[0].device = "tap45"
*.host45.eth[0].namespace = "ns45"
*.host45.eth[0].copyConfiguration = "copyFromExt"
*.host45.numPcapRecorders = 1
*.host45.pcapRecorder[*].pcapFile = "results/host45.pcap"

*.host46.eth[0].typename = "ExtUpperEthernetInterface"
*.host46.eth[0].device = "tap46"
*.host46.eth[0].namespace = "ns46"
*.host46.eth[0].copyConfiguration = "copyFromExt"
*.host46.numPcapRecorders = 1
*.host46.pcapRecorder[*].pcapFile = "results/host46.pcap"

*.host47.eth[0].typename = "ExtUpperEthernetInterface"
*.host47.eth[0].device = "tap47"
*.host47.eth[0].namespace = "ns47"
*.host47.eth[0].copyConfiguration = "copyFromExt"
*.host47.numPcapRecorders = 1
*.host47.pcapRecorder[*].pcapFile = "results/host47.pcap"

*.host48.eth[0].typename = "ExtUpperEthernetInterface"
*.host48.eth[0].device = "tap48"
*.host48.eth[0].namespace = "ns48"
*.host48.eth[0].copyConfiguration = "copyFromExt"
*.host48.numPcapRecorders = 1
*.host48.pcapRecorder[*].pcapFile = "results/host48.pcap"

*.host49.eth[0].typename = "ExtUpperEthernetInterface"
*.host49.eth[0].device = "tap49"
*.host49.eth[0].namespace = "ns49"
*.host49.eth[0].copyConfiguration = "copyFromExt"
*.host49.numPcapRecorders = 1
*.host49.pcapRecorder[*].pcapFile = "results/host49.pcap"

*.host50.eth[0].typename = "ExtUpperEthernetInterface"
*.host50.eth[0].device = "tap50"
*.host50.eth[0].namespace = "ns50"
*.host50.eth[0].copyConfiguration = "copyFromExt"
*.host50.numPcapRecorders = 1
*.host50.pcapRecorder[*].pcapFile = "results/host50.pcap"

*.host51.eth[0].typename = "ExtUpperEthernetInterface"
*.host51.eth[0].device = "tap51"
*.host51.eth[0].namespace = "ns51"
*.host51.eth[0].copyConfiguration = "copyFromExt"
*.host51.numPcapRecorders = 1
*.host51.pcapRecorder[*].pcapFile = "results/host51.pcap"

*.host52.eth[0].typename = "ExtUpperEthernetInterface"
*.host52.eth[0].device = "tap52"
*.host52.eth[0].namespace = "ns52"
*.host52.eth[0].copyConfiguration = "copyFromExt"
*.host52.numPcapRecorders = 1
*.host52.pcapRecorder[*].pcapFile = "results/host52.pcap"

*.host53.eth[0].typename = "ExtUpperEthernetInterface"
*.host53.eth[0].device = "tap53"
*.host53.eth[0].namespace = "ns53"
*.host53.eth[0].copyConfiguration = "copyFromExt"
*.host53.numPcapRecorders = 1
*.host53.pcapRecorder[*].pcapFile = "results/host53.pcap"

*.host54.eth[0].typename = "ExtUpperEthernetInterface"
*.host54.eth[0].device = "tap54"
*.host54.eth[0].namespace = "ns54"
*.host54.eth[0].copyConfiguration = "copyFromExt"
*.host54.numPcapRecorders = 1
*.host54.pcapRecorder[*].pcapFile = "results/host54.pcap"

*.host55.eth[0].typename = "ExtUpperEthernetInterface"
*.host55.eth[0].device = "tap55"
*.host55.eth[0].namespace = "ns55"
*.host55.eth[0].copyConfiguration = "copyFromExt"
*.host55.numPcapRecorders = 1
*.host55.pcapRecorder[*].pcapFile = "results/host55.pcap"

*.host56.eth[0].typename = "ExtUpperEthernetInterface"
*.host56.eth[0].device = "tap56"
*.host56.eth[0].namespace = "ns56"
*.host56.eth[0].copyConfiguration = "copyFromExt"
*.host56.numPcapRecorders = 1
*.host56.pcapRecorder[*].pcapFile = "results/host56.pcap"

*.host57.eth[0].typename = "ExtUpperEthernetInterface"
*.host57.eth[0].device = "tap57"
*.host57.eth[0].namespace = "ns57"
*.host57.eth[0].copyConfiguration = "copyFromExt"
*.host57.numPcapRecorders = 1
*.host57.pcapRecorder[*].pcapFile = "results/host57.pcap"

*.host58.eth[0].typename = "ExtUpperEthernetInterface"
*.host58.eth[0].device = "tap58"
*.host58.eth[0].namespace = "ns58"
*.host58.eth[0].copyConfiguration = "copyFromExt"
*.host58.numPcapRecorders = 1
*.host58.pcapRecorder[*].pcapFile = "results/host58.pcap"

*.host59.eth[0].typename = "ExtUpperEthernetInterface"
*.host59.eth[0].device = "tap59"
*.host59.eth[0].namespace = "ns59"
*.host59.eth[0].copyConfiguration = "copyFromExt"
*.host59.numPcapRecorders = 1
*.host59.pcapRecorder[*].pcapFile = "results/host59.pcap"

*.host60.eth[0].typename = "ExtUpperEthernetInterface"
*.host60.eth[0].device = "tap60"
*.host60.eth[0].namespace = "ns60"
*.host60.eth[0].copyConfiguration = "copyFromExt"
*.host60.numPcapRecorders = 1
*.host60.pcapRecorder[*].pcapFile = "results/host60.pcap"

*.host61.eth[0].typename = "ExtUpperEthernetInterface"
*.host61.eth[0].device = "tap61"
*.host61.eth[0].namespace = "ns61"
*.host61.eth[0].copyConfiguration = "copyFromExt"
*.host61.numPcapRecorders = 1
*.host61.pcapRecorder[*].pcapFile = "results/host61.pcap"

*.host62.eth[0].typename = "ExtUpperEthernetInterface"
*.host62.eth[0].device = "tap62"
*.host62.eth[0].namespace = "ns62"
*.host62.eth[0].copyConfiguration = "copyFromExt"
*.host62.numPcapRecorders = 1
*.host62.pcapRecorder[*].pcapFile = "results/host62.pcap"

*.host63.eth[0].typename = "ExtUpperEthernetInterface"
*.host63.eth[0].device = "tap63"
*.host63.eth[0].namespace = "ns63"
*.host63.eth[0].copyConfiguration = "copyFromExt"
*.host63.numPcapRecorders = 1
*.host63.pcapRecorder[*].pcapFile = "results/host63.pcap"

*.host64.eth[0].typename = "ExtUpperEthernetInterface"
*.host64.eth[0].device = "tap64"
*.host64.eth[0].namespace = "ns64"
*.host64.eth[0].copyConfiguration = "copyFromExt"
*.host64.numPcapRecorders = 1
*.host64.pcapRecorder[*].pcapFile = "results/host64.pcap"

*.host65.eth[0].typename = "ExtUpperEthernetInterface"
*.host65.eth[0].device = "tap65"
*.host65.eth[0].namespace = "ns65"
*.host65.eth[0].copyConfiguration = "copyFromExt"
*.host65.numPcapRecorders = 1
*.host65.pcapRecorder[*].pcapFile = "results/host65.pcap"

*.host66.eth[0].typename = "ExtUpperEthernetInterface"
*.host66.eth[0].device = "tap66"
*.host66.eth[0].namespace = "ns66"
*.host66.eth[0].copyConfiguration = "copyFromExt"
*.host66.numPcapRecorders = 1
*.host66.pcapRecorder[*].pcapFile = "results/host66.pcap"

*.host67.eth[0].typename = "ExtUpperEthernetInterface"
*.host67.eth[0].device = "tap67"
*.host67.eth[0].namespace = "ns67"
*.host67.eth[0].copyConfiguration = "copyFromExt"
*.host67.numPcapRecorders = 1
*.host67.pcapRecorder[*].pcapFile = "results/host67.pcap"

*.host68.eth[0].typename = "ExtUpperEthernetInterface"
*.host68.eth[0].device = "tap68"
*.host68.eth[0].namespace = "ns68"
*.host68.eth[0].copyConfiguration = "copyFromExt"
*.host68.numPcapRecorders = 1
*.host68.pcapRecorder[*].pcapFile = "results/host68.pcap"

*.host69.eth[0].typename = "ExtUpperEthernetInterface"
*.host69.eth[0].device = "tap69"
*.host69.eth[0].namespace = "ns69"
*.host69.eth[0].copyConfiguration = "copyFromExt"
*.host69.numPcapRecorders = 1
*.host69.pcapRecorder[*].pcapFile = "results/host69.pcap"

*.host70.eth[0].typename = "ExtUpperEthernetInterface"
*.host70.eth[0].device = "tap70"
*.host70.eth[0].namespace = "ns70"
*.host70.eth[0].copyConfiguration = "copyFromExt"
*.host70.numPcapRecorders = 1
*.host70.pcapRecorder[*].pcapFile = "results/host70.pcap"

*.host71.eth[0].typename = "ExtUpperEthernetInterface"
*.host71.eth[0].device = "tap71"
*.host71.eth[0].namespace = "ns71"
*.host71.eth[0].copyConfiguration = "copyFromExt"
*.host71.numPcapRecorders = 1
*.host71.pcapRecorder[*].pcapFile = "results/host71.pcap"

*.host72.eth[0].typename = "ExtUpperEthernetInterface"
*.host72.eth[0].device = "tap72"
*.host72.eth[0].namespace = "ns72"
*.host72.eth[0].copyConfiguration = "copyFromExt"
*.host72.numPcapRecorders = 1
*.host72.pcapRecorder[*].pcapFile = "results/host72.pcap"

*.host73.eth[0].typename = "ExtUpperEthernetInterface"
*.host73.eth[0].device = "tap73"
*.host73.eth[0].namespace = "ns73"
*.host73.eth[0].copyConfiguration = "copyFromExt"
*.host73.numPcapRecorders = 1
*.host73.pcapRecorder[*].pcapFile = "results/host73.pcap"

*.host74.eth[0].typename = "ExtUpperEthernetInterface"
*.host74.eth[0].device = "tap74"
*.host74.eth[0].namespace = "ns74"
*.host74.eth[0].copyConfiguration = "copyFromExt"
*.host74.numPcapRecorders = 1
*.host74.pcapRecorder[*].pcapFile = "results/host74.pcap"

*.host75.eth[0].typename = "ExtUpperEthernetInterface"
*.host75.eth[0].device = "tap75"
*.host75.eth[0].namespace = "ns75"
*.host75.eth[0].copyConfiguration = "copyFromExt"
*.host75.numPcapRecorders = 1
*.host75.pcapRecorder[*].pcapFile = "results/host75.pcap"

*.host76.eth[0].typename = "ExtUpperEthernetInterface"
*.host76.eth[0].device = "tap76"
*.host76.eth[0].namespace = "ns76"
*.host76.eth[0].copyConfiguration = "copyFromExt"
*.host76.numPcapRecorders = 1
*.host76.pcapRecorder[*].pcapFile = "results/host76.pcap"

*.host77.eth[0].typename = "ExtUpperEthernetInterface"
*.host77.eth[0].device = "tap77"
*.host77.eth[0].namespace = "ns77"
*.host77.eth[0].copyConfiguration = "copyFromExt"
*.host77.numPcapRecorders = 1
*.host77.pcapRecorder[*].pcapFile = "results/host77.pcap"

*.host78.eth[0].typename = "ExtUpperEthernetInterface"
*.host78.eth[0].device = "tap78"
*.host78.eth[0].namespace = "ns78"
*.host78.eth[0].copyConfiguration = "copyFromExt"
*.host78.numPcapRecorders = 1
*.host78.pcapRecorder[*].pcapFile = "results/host78.pcap"

*.host79.eth[0].typename = "ExtUpperEthernetInterface"
*.host79.eth[0].device = "tap79"
*.host79.eth[0].namespace = "ns79"
*.host79.eth[0].copyConfiguration = "copyFromExt"
*.host79.numPcapRecorders = 1
*.host79.pcapRecorder[*].pcapFile = "results/host79.pcap"

*.host80.eth[0].typename = "ExtUpperEthernetInterface"
*.host80.eth[0].device = "tap80"
*.host80.eth[0].namespace = "ns80"
*.host80.eth[0].copyConfiguration = "copyFromExt"
*.host80.numPcapRecorders = 1
*.host80.pcapRecorder[*].pcapFile = "results/host80.pcap"

*.host81.eth[0].typename = "ExtUpperEthernetInterface"
*.host81.eth[0].device = "tap81"
*.host81.eth[0].namespace = "ns81"
*.host81.eth[0].copyConfiguration = "copyFromExt"
*.host81.numPcapRecorders = 1
*.host81.pcapRecorder[*].pcapFile = "results/host81.pcap"

*.host82.eth[0].typename = "ExtUpperEthernetInterface"
*.host82.eth[0].device = "tap82"
*.host82.eth[0].namespace = "ns82"
*.host82.eth[0].copyConfiguration = "copyFromExt"
*.host82.numPcapRecorders = 1
*.host82.pcapRecorder[*].pcapFile = "results/host82.pcap"

*.host83.eth[0].typename = "ExtUpperEthernetInterface"
*.host83.eth[0].device = "tap83"
*.host83.eth[0].namespace = "ns83"
*.host83.eth[0].copyConfiguration = "copyFromExt"
*.host83.numPcapRecorders = 1
*.host83.pcapRecorder[*].pcapFile = "results/host83.pcap"

*.host84.eth[0].typename = "ExtUpperEthernetInterface"
*.host84.eth[0].device = "tap84"
*.host84.eth[0].namespace = "ns84"
*.host84.eth[0].copyConfiguration = "copyFromExt"
*.host84.numPcapRecorders = 1
*.host84.pcapRecorder[*].pcapFile = "results/host84.pcap"

*.host85.eth[0].typename = "ExtUpperEthernetInterface"
*.host85.eth[0].device = "tap85"
*.host85.eth[0].namespace = "ns85"
*.host85.eth[0].copyConfiguration = "copyFromExt"
*.host85.numPcapRecorders = 1
*.host85.pcapRecorder[*].pcapFile = "results/host85.pcap"

*.host86.eth[0].typename = "ExtUpperEthernetInterface"
*.host86.eth[0].device = "tap86"
*.host86.eth[0].namespace = "ns86"
*.host86.eth[0].copyConfiguration = "copyFromExt"
*.host86.numPcapRecorders = 1
*.host86.pcapRecorder[*].pcapFile = "results/host86.pcap"

*.host87.eth[0].typename = "ExtUpperEthernetInterface"
*.host87.eth[0].device = "tap87"
*.host87.eth[0].namespace = "ns87"
*.host87.eth[0].copyConfiguration = "copyFromExt"
*.host87.numPcapRecorders = 1
*.host87.pcapRecorder[*].pcapFile = "results/host87.pcap"

*.host88.eth[0].typename = "ExtUpperEthernetInterface"
*.host88.eth[0].device = "tap88"
*.host88.eth[0].namespace = "ns88"
*.host88.eth[0].copyConfiguration = "copyFromExt"
*.host88.numPcapRecorders = 1
*.host88.pcapRecorder[*].pcapFile = "results/host88.pcap"

*.host89.eth[0].typename = "ExtUpperEthernetInterface"
*.host89.eth[0].device = "tap89"
*.host89.eth[0].namespace = "ns89"
*.host89.eth[0].copyConfiguration = "copyFromExt"
*.host89.numPcapRecorders = 1
*.host89.pcapRecorder[*].pcapFile = "results/host89.pcap"

*.host90.eth[0].typename = "ExtUpperEthernetInterface"
*.host90.eth[0].device = "tap90"
*.host90.eth[0].namespace = "ns90"
*.host90.eth[0].copyConfiguration = "copyFromExt"
*.host90.numPcapRecorders = 1
*.host90.pcapRecorder[*].pcapFile = "results/host90.pcap"

*.host91.eth[0].typename = "ExtUpperEthernetInterface"
*.host91.eth[0].device = "tap91"
*.host91.eth[0].namespace = "ns91"
*.host91.eth[0].copyConfiguration = "copyFromExt"
*.host91.numPcapRecorders = 1
*.host91.pcapRecorder[*].pcapFile = "results/host91.pcap"

*.host92.eth[0].typename = "ExtUpperEthernetInterface"
*.host92.eth[0].device = "tap92"
*.host92.eth[0].namespace = "ns92"
*.host92.eth[0].copyConfiguration = "copyFromExt"
*.host92.numPcapRecorders = 1
*.host92.pcapRecorder[*].pcapFile = "results/host92.pcap"

*.host93.eth[0].typename = "ExtUpperEthernetInterface"
*.host93.eth[0].device = "tap93"
*.host93.eth[0].namespace = "ns93"
*.host93.eth[0].copyConfiguration = "copyFromExt"
*.host93.numPcapRecorders = 1
*.host93.pcapRecorder[*].pcapFile = "results/host93.pcap"

*.host94.eth[0].typename = "ExtUpperEthernetInterface"
*.host94.eth[0].device = "tap94"
*.host94.eth[0].namespace = "ns94"
*.host94.eth[0].copyConfiguration = "copyFromExt"
*.host94.numPcapRecorders = 1
*.host94.pcapRecorder[*].pcapFile = "results/host94.pcap"

*.host95.eth[0].typename = "ExtUpperEthernetInterface"
*.host95.eth[0].device = "tap95"
*.host95.eth[0].namespace = "ns95"
*.host95.eth[0].copyConfiguration = "copyFromExt"
*.host95.numPcapRecorders = 1
*.host95.pcapRecorder[*].pcapFile = "results/host95.pcap"

*.host96.eth[0].typename = "ExtUpperEthernetInterface"
*.host96.eth[0].device = "tap96"
*.host96.eth[0].namespace = "ns96"
*.host96.eth[0].copyConfiguration = "copyFromExt"
*.host96.numPcapRecorders = 1
*.host96.pcapRecorder[*].pcapFile = "results/host96.pcap"

*.host97.eth[0].typename = "ExtUpperEthernetInterface"
*.host97.eth[0].device = "tap97"
*.host97.eth[0].namespace = "ns97"
*.host97.eth[0].copyConfiguration = "copyFromExt"
*.host97.numPcapRecorders = 1
*.host97.pcapRecorder[*].pcapFile = "results/host97.pcap"

*.host98.eth[0].typename = "ExtUpperEthernetInterface"
*.host98.eth[0].device = "tap98"
*.host98.eth[0].namespace = "ns98"
*.host98.eth[0].copyConfiguration = "copyFromExt"
*.host98.numPcapRecorders = 1
*.host98.pcapRecorder[*].pcapFile = "results/host98.pcap"

*.host99.eth[0].typename = "ExtUpperEthernetInterface"
*.host99.eth[0].device = "tap99"
*.host99.eth[0].namespace = "ns99"
*.host99.eth[0].copyConfiguration = "copyFromExt"
*.host99.numPcapRecorders = 1
*.host99.pcapRecorder[*].pcapFile = "results/host99.pcap"

*.host100.eth[0].typename = "ExtUpperEthernetInterface"
*.host100.eth[0].device = "tap100"
*.host100.eth[0].namespace = "ns100"
*.host100.eth[0].copyConfiguration = "copyFromExt"
*.host100.numPcapRecorders = 1
*.host100.pcapRecorder[*].pcapFile = "results/host100.pcap"

*.host101.eth[0].typename = "ExtUpperEthernetInterface"
*.host101.eth[0].device = "tap101"
*.host101.eth[0].namespace = "ns101"
*.host101.eth[0].copyConfiguration = "copyFromExt"
*.host101.numPcapRecorders = 1
*.host101.pcapRecorder[*].pcapFile = "results/host101.pcap"

*.host102.eth[0].typename = "ExtUpperEthernetInterface"
*.host102.eth[0].device = "tap102"
*.host102.eth[0].namespace = "ns102"
*.host102.eth[0].copyConfiguration = "copyFromExt"
*.host102.numPcapRecorders = 1
*.host102.pcapRecorder[*].pcapFile = "results/host102.pcap"

*.host103.eth[0].typename = "ExtUpperEthernetInterface"
*.host103.eth[0].device = "tap103"
*.host103.eth[0].namespace = "ns103"
*.host103.eth[0].copyConfiguration = "copyFromExt"
*.host103.numPcapRecorders = 1
*.host103.pcapRecorder[*].pcapFile = "results/host103.pcap"

*.host104.eth[0].typename = "ExtUpperEthernetInterface"
*.host104.eth[0].device = "tap104"
*.host104.eth[0].namespace = "ns104"
*.host104.eth[0].copyConfiguration = "copyFromExt"
*.host104.numPcapRecorders = 1
*.host104.pcapRecorder[*].pcapFile = "results/host104.pcap"

*.host105.eth[0].typename = "ExtUpperEthernetInterface"
*.host105.eth[0].device = "tap105"
*.host105.eth[0].namespace = "ns105"
*.host105.eth[0].copyConfiguration = "copyFromExt"
*.host105.numPcapRecorders = 1
*.host105.pcapRecorder[*].pcapFile = "results/host105.pcap"

*.host106.eth[0].typename = "ExtUpperEthernetInterface"
*.host106.eth[0].device = "tap106"
*.host106.eth[0].namespace = "ns106"
*.host106.eth[0].copyConfiguration = "copyFromExt"
*.host106.numPcapRecorders = 1
*.host106.pcapRecorder[*].pcapFile = "results/host106.pcap"

*.host107.eth[0].typename = "ExtUpperEthernetInterface"
*.host107.eth[0].device = "tap107"
*.host107.eth[0].namespace = "ns107"
*.host107.eth[0].copyConfiguration = "copyFromExt"
*.host107.numPcapRecorders = 1
*.host107.pcapRecorder[*].pcapFile = "results/host107.pcap"

*.host108.eth[0].typename = "ExtUpperEthernetInterface"
*.host108.eth[0].device = "tap108"
*.host108.eth[0].namespace = "ns108"
*.host108.eth[0].copyConfiguration = "copyFromExt"
*.host108.numPcapRecorders = 1
*.host108.pcapRecorder[*].pcapFile = "results/host108.pcap"

*.host109.eth[0].typename = "ExtUpperEthernetInterface"
*.host109.eth[0].device = "tap109"
*.host109.eth[0].namespace = "ns109"
*.host109.eth[0].copyConfiguration = "copyFromExt"
*.host109.numPcapRecorders = 1
*.host109.pcapRecorder[*].pcapFile = "results/host109.pcap"

*.host110.eth[0].typename = "ExtUpperEthernetInterface"
*.host110.eth[0].device = "tap110"
*.host110.eth[0].namespace = "ns110"
*.host110.eth[0].copyConfiguration = "copyFromExt"
*.host110.numPcapRecorders = 1
*.host110.pcapRecorder[*].pcapFile = "results/host110.pcap"

*.host111.eth[0].typename = "ExtUpperEthernetInterface"
*.host111.eth[0].device = "tap111"
*.host111.eth[0].namespace = "ns111"
*.host111.eth[0].copyConfiguration = "copyFromExt"
*.host111.numPcapRecorders = 1
*.host111.pcapRecorder[*].pcapFile = "results/host111.pcap"

*.host112.eth[0].typename = "ExtUpperEthernetInterface"
*.host112.eth[0].device = "tap112"
*.host112.eth[0].namespace = "ns112"
*.host112.eth[0].copyConfiguration = "copyFromExt"
*.host112.numPcapRecorders = 1
*.host112.pcapRecorder[*].pcapFile = "results/host112.pcap"