[General]
network = FiveHost
scheduler-class = "inet::RealTimeScheduler"
sim-time-limit = 120s

**.crcMode = "computed"
**.fcsMode = "computed"

*.localhost.eth[0].typename = "ExtUpperEthernetInterface"
*.localhost.eth[0].device = "tap_l"
*.localhost.eth[0].copyConfiguration = "copyFromExt"
*.localhost.numPcapRecorders = 1
*.localhost.pcapRecorder[*].pcapFile = "results/localhost.pcap"

*.host1.eth[0].typename = "ExtUpperEthernetInterface"
*.host1.eth[0].device = "tap1"
*.host1.eth[0].namespace = "ns1"
*.host1.eth[0].copyConfiguration = "copyFromExt"
*.host1.numPcapRecorders = 1
*.host1.pcapRecorder[*].pcapFile = "results/host1.pcap"

*.host2.eth[0].typename = "ExtUpperEthernetInterface"
*.host2.eth[0].device = "tap2"
*.host2.eth[0].namespace = "ns2"
*.host2.eth[0].copyConfiguration = "copyFromExt"
*.host2.numPcapRecorders = 1
*.host2.pcapRecorder[*].pcapFile = "results/host2.pcap"

*.host3.eth[0].typename = "ExtUpperEthernetInterface"
*.host3.eth[0].device = "tap3"
*.host3.eth[0].namespace = "ns3"
*.host3.eth[0].copyConfiguration = "copyFromExt"
*.host3.numPcapRecorders = 1
*.host3.pcapRecorder[*].pcapFile = "results/host3.pcap"

*.host4.eth[0].typename = "ExtUpperEthernetInterface"
*.host4.eth[0].device = "tap4"
*.host4.eth[0].namespace = "ns4"
*.host4.eth[0].copyConfiguration = "copyFromExt"
*.host4.numPcapRecorders = 1
*.host4.pcapRecorder[*].pcapFile = "results/host4.pcap"

*.host5.eth[0].typename = "ExtUpperEthernetInterface"
*.host5.eth[0].device = "tap5"
*.host5.eth[0].namespace = "ns5"
*.host5.eth[0].copyConfiguration = "copyFromExt"
*.host5.numPcapRecorders = 1
*.host5.pcapRecorder[*].pcapFile = "results/host5.pcap"

*.visualizer.*.interfaceTableVisualizer.displayInterfaceTables = true
*.visualizer.*.interfaceTableVisualizer.nodeFilter = "not name=~switch*"

**.duplexMode = true
**.eth*.bitrate = 100Mbps

**.pcapRecorder[*].alwaysFlush = true
