[General]
network = NetnsClientServer
scheduler-class = "inet::RealTimeScheduler"
sim-time-limit = 225s

**.crcMode = "computed"
**.fcsMode = "computed"

*.host1.eth[0].typename = "ExtUpperEthernetInterface"
*.host1.eth[0].device = "tap1"
*.host1.eth[0].namespace = "ns1"
*.host1.eth[0].copyConfiguration = "copyFromExt"
*.host1.numPcapRecorders = 1
*.host1.pcapRecorder[*].pcapFile = "results/host1.pcap"

*.host2.eth[0].typename = "ExtUpperEthernetInterface"
*.host2.eth[0].device = "tap2"
*.host2.eth[0].namespace = "ns2"
*.host2.eth[0].copyConfiguration = "copyFromExt"
*.host2.numPcapRecorders = 1
*.host2.pcapRecorder[*].pcapFile = "results/host2.pcap"

*.router.numPcapRecorders = 1
*.router.pcapRecorder[0].moduleNamePatterns= "eth[*]"
*.router.pcapRecorder[0].pcapFile= "results/router.eth.pcap"
*.configurator.config = xml("<config> \
                                <interface hosts='router' names='eth0' address='192.168.2.99' netmask='255.255.255.0'/> \
                                <interface hosts='router' names='eth1' address='192.168.3.99' netmask='255.255.255.0'/> \
                             </config>")

*.router.ipv4.natTable.config = xmldoc("router.ipv4.natTable.config.xml")

*.visualizer.*.interfaceTableVisualizer.displayInterfaceTables = true
*.visualizer.*.interfaceTableVisualizer.nodeFilter = "not name=~switch*"

**.duplexMode = true
**.eth*.bitrate = 100Mbps

**.pcapRecorder[*].alwaysFlush = true
