[General]
network = BasicFederation
scheduler-class = "inet::RealTimeScheduler"
sim-time-limit = 225s

**.crcMode = "computed"
**.fcsMode = "computed"

*.Federate_c.eth[0].typename = "ExtUpperEthernetInterface"
*.Federate_c.eth[0].device = "tap_c"
*.Federate_c.eth[0].copyConfiguration = "copyFromExt"

*.Federate_p.eth[0].typename = "ExtUpperEthernetInterface"
*.Federate_p.eth[0].device = "tap_p"
*.Federate_p.eth[0].copyConfiguration = "copyFromExt"

*.RTI.eth[0].typename = "ExtUpperEthernetInterface"
*.RTI.eth[0].device = "tap_rti"
*.RTI.eth[0].copyConfiguration = "copyFromExt"

*.configurator.config = xml("<config> \
                                <interface hosts='router' names='eth0' address='192.168.3.99' netmask='255.255.255.0'/> \
                                <interface hosts='router' names='eth1' address='192.168.4.99' netmask='255.255.255.0'/> \
                                <interface hosts='router' names='eth2' address='192.168.2.99' netmask='255.255.255.0'/> \
                             </config>")

*.router.ipv4.natTable.config = xmldoc("router.ipv4.natTable.config.xml")

*.visualizer.*.interfaceTableVisualizer.displayInterfaceTables = true
*.visualizer.*.interfaceTableVisualizer.nodeFilter = "not name=~switch*"

**.duplexMode = true
**.eth*.bitrate = 100Mbps
