[General]
network = BasicFederation
scheduler-class = "inet::RealTimeScheduler"
sim-time-limit = 120s

**.crcMode = "computed"
**.fcsMode = "computed"

*.localhost.eth[0].typename = "ExtUpperEthernetInterface"
*.localhost.eth[0].device = "tap_l"
*.localhost.eth[0].copyConfiguration = "copyFromExt"
*.localhost.numPcapRecorders = 1
*.localhost.pcapRecorder[*].pcapFile = "results/localhost.pcap"

*.RTI.eth[0].typename = "ExtUpperEthernetInterface"
*.RTI.eth[0].device = "tap_r"
*.RTI.eth[0].namespace = "ns_r"
*.RTI.eth[0].copyConfiguration = "copyFromExt"
*.RTI.numPcapRecorders = 1
*.RTI.pcapRecorder[*].pcapFile = "results/RTI.pcap"

*.Federate_c.eth[0].typename = "ExtUpperEthernetInterface"
*.Federate_c.eth[0].device = "tap_c"
*.Federate_c.eth[0].namespace = "ns_c"
*.Federate_c.eth[0].copyConfiguration = "copyFromExt"
*.Federate_c.numPcapRecorders = 1
*.Federate_c.pcapRecorder[*].pcapFile = "results/Federate_c.pcap"

*.Federate_p.eth[0].typename = "ExtUpperEthernetInterface"
*.Federate_p.eth[0].device = "tap_p"
*.Federate_p.eth[0].namespace = "ns_p"
*.Federate_p.eth[0].copyConfiguration = "copyFromExt"
*.Federate_p.numPcapRecorders = 1
*.Federate_p.pcapRecorder[*].pcapFile = "results/Federate_p.pcap"

*.visualizer.*.interfaceTableVisualizer.displayInterfaceTables = true
*.visualizer.*.interfaceTableVisualizer.nodeFilter = "not name=~switch*"

**.duplexMode = true
**.eth*.bitrate = 100Mbps

**.pcapRecorder[*].alwaysFlush = true
